
 Fire Dynamics Simulator

 Current Date     : March 25, 2019  19:01:33
 Version          : FDS 6.5.3
 Revision         : FDS6.5.3-598-geb56ed1
 Revision Date    : Thu Jan 19 16:12:59 2017 -0500
 Compilation Date : Fri 01/20/2017  09:11 PM

 MPI Enabled; Number of MPI Processes:          1
 OpenMP Enabled; Number of OpenMP Threads:   4

 MPI version: 3.0
 MPI library version: Intel(R) MPI Library 5.1.3 for Windows* OS


 Job TITLE        : ASET_animation
 Job ID string    : ASET_animation


 Grid Dimensions, Mesh     1

   Cells in the X Direction           150
   Cells in the Y Direction            50
   Cells in the Z Direction            15


 Physical Dimensions, Mesh     1

   Length (m)                      30.000
   Width  (m)                      10.000
   Height (m)                       3.000
   Initial Time Step (s)            0.183


 Miscellaneous Parameters

   Simulation Start Time (s)          0.0
   Simulation End Time (s)          120.0
   LES Calculation
   Deardorff Model (C_DEARDORFF)     0.10
   Turbulent Prandtl Number          0.50
   Turbulent Schmidt Number          0.50
   Ambient Temperature (C)          20.00


 Mass Fraction Transformation Matrix to Convert Species Mixtures (Columns) to Primitive Species (Rows)

                         AIR       REAC_FUE  PRODUCTS
   REAC_FUEL             0.000000  1.000000  0.000000
   NITROGEN              0.763077  0.000000  0.668615
   OXYGEN                0.231181  0.000000  0.000000
   CARBON DIOXIDE        0.000592  0.000000  0.239287
   CARBON MONOXIDE       0.000000  0.000000  0.000000
   WATER VAPOR           0.005149  0.000000  0.073514
   SOOT                  0.000000  0.000000  0.018584


 Primitive Species Information

   REAC_FUEL
   Gas Species
   Molecular Weight (g/mol)           130.42922
   Ambient Density (kg/m^3)            5.422
   Enthalpy of Formation (J/kg)       -3.27E+06

   NITROGEN
   Gas Species
   Molecular Weight (g/mol)            28.01340
   Ambient Density (kg/m^3)            1.165
   Enthalpy of Formation (J/kg)        0.00E+00

   OXYGEN
   Gas Species
   Molecular Weight (g/mol)            31.99880
   Ambient Density (kg/m^3)            1.330
   Enthalpy of Formation (J/kg)        0.00E+00

   CARBON DIOXIDE
   Gas Species
   Molecular Weight (g/mol)            44.00950
   Ambient Density (kg/m^3)            1.830
   Enthalpy of Formation (J/kg)       -8.94E+06

   CARBON MONOXIDE
   Gas Species
   Molecular Weight (g/mol)            28.01010
   Ambient Density (kg/m^3)            1.164
   Enthalpy of Formation (J/kg)       -3.95E+06

   WATER VAPOR
   Gas Species
   Molecular Weight (g/mol)            18.01528
   Ambient Density (kg/m^3)            0.749
   Enthalpy of Formation (J/kg)       -1.34E+07

   SOOT
   Gas Species
   Molecular Weight (g/mol)            10.91042
   Ambient Density (kg/m^3)            0.454
   Enthalpy of Formation (J/kg)        0.00E+00


 Tracked (Lumped) Species Information

   AIR
   Molecular Weight (g/mol)            28.76564
   Ambient Density (kg/m^3)            1.196
   Initial Mass Fraction               1.000
   Enthalpy of Formation (J/kg)     -7.44E+04

   Sub Species                    Mass Fraction     Mole Fraction
   NITROGEN                       7.630774E-01      7.835682E-01
   OXYGEN                         2.311814E-01      2.078229E-01
   CARBON DIOXIDE                 5.919362E-04      3.869034E-04
   WATER VAPOR                    5.149269E-03      8.222023E-03
 
     Viscosity (kg/m/s) Ambient,  293 K:  1.80E-05
                                  500 K:  2.61E-05
                                 1000 K:  4.13E-05
                                 1500 K:  5.37E-05
   Therm. Cond. (W/m/K) Ambient,  293 K:  2.56E-02
                                  500 K:  3.81E-02
                                 1000 K:  6.68E-02
                                 1500 K:  9.24E-02
        Enthalpy (J/kg) Ambient,  293 K: -7.97E+04
                                  500 K: -1.36E+05
                                 1000 K: -2.72E+05
                                 1500 K: -4.08E+05
    Spec. Heat (J/kg/K) Ambient,  293 K:  1.02E+03
                                  500 K:  1.04E+03
                                 1000 K:  1.16E+03
                                 1500 K:  1.23E+03
   Diff. Coeff. (m^2/s) Ambient,  293 K:  1.99E-05
                                  500 K:  4.96E-05
                                 1000 K:  1.58E-04
                                 1500 K:  3.09E-04

   REAC_FUEL
   Molecular Weight (g/mol)           130.42922
   Ambient Density (kg/m^3)            5.422
   Initial Mass Fraction               0.000
   Enthalpy of Formation (J/kg)     -3.27E+06

   Sub Species                    Mass Fraction     Mole Fraction
   REAC_FUEL                      1.000000E+00      1.000000E+00
 
     Viscosity (kg/m/s) Ambient,  293 K:  3.75E-05
                                  500 K:  5.42E-05
                                 1000 K:  8.52E-05
                                 1500 K:  1.11E-04
   Therm. Cond. (W/m/K) Ambient,  293 K:  1.18E-02
                                  500 K:  1.70E-02
                                 1000 K:  2.68E-02
                                 1500 K:  3.48E-02
        Enthalpy (J/kg) Ambient,  293 K: -3.27E+06
                                  500 K: -5.58E+06
                                 1000 K: -1.12E+07
                                 1500 K: -1.67E+07
    Spec. Heat (J/kg/K) Ambient,  293 K:  2.23E+02
                                  500 K:  2.23E+02
                                 1000 K:  2.23E+02
                                 1500 K:  2.23E+02
   Diff. Coeff. (m^2/s) Ambient,  293 K:  1.55E-05
                                  500 K:  3.85E-05
                                 1000 K:  1.22E-04
                                 1500 K:  2.39E-04

   PRODUCTS
   Molecular Weight (g/mol)            28.49908
   Ambient Density (kg/m^3)            1.185
   Initial Mass Fraction               0.000
   Enthalpy of Formation (J/kg)     -3.13E+06

   Sub Species                    Mass Fraction     Mole Fraction
   NITROGEN                       6.686151E-01      6.802071E-01
   CARBON DIOXIDE                 2.392865E-01      1.549539E-01
   CARBON MONOXIDE                0.000000E+00      0.000000E+00
   WATER VAPOR                    7.351388E-02      1.162945E-01
   SOOT                           1.858449E-02      4.854449E-02
 
     Viscosity (kg/m/s) Ambient,  293 K:  1.61E-05
                                  500 K:  2.38E-05
                                 1000 K:  3.86E-05
                                 1500 K:  5.09E-05
   Therm. Cond. (W/m/K) Ambient,  293 K:  2.29E-02
                                  500 K:  3.60E-02
                                 1000 K:  6.71E-02
                                 1500 K:  9.57E-02
        Enthalpy (J/kg) Ambient,  293 K: -3.13E+06
                                  500 K: -5.34E+06
                                 1000 K: -1.07E+07
                                 1500 K: -1.60E+07
    Spec. Heat (J/kg/K) Ambient,  293 K:  1.05E+03
                                  500 K:  1.12E+03
                                 1000 K:  1.28E+03
                                 1500 K:  1.38E+03
   Diff. Coeff. (m^2/s) Ambient,  293 K:  1.96E-05
                                  500 K:  4.95E-05
                                 1000 K:  1.59E-04
                                 1500 K:  3.13E-04


 Gas Phase Reaction Information

   NFPA Babrauskas

   Reaction ID:  POLYURETHANE

   Fuel                                           Heat of Combustion (kJ/kg)
   REAC_FUEL                                                      17992.9990

   Stoichiometry

   Primitive Species
   Species ID                                                 Stoich. Coeff.
   REAC_FUEL                                                       -1.000000
   NITROGEN                                                         0.500000
   OXYGEN                                                          -5.598523
   CARBON DIOXIDE                                                   4.912077
   WATER VAPOR                                                      3.472893
   SOOT                                                             1.542137

   Tracked (Lumped) Species
   Species ID                                                 Stoich. Coeff.
   AIR                                                            -26.938920
   REAC_FUEL                                                       -1.000000
   PRODUCTS                                                        31.767503

   Reaction Kinetics

   Arrhenius Parameters
   Pre-exponential:    Infinite
   Activation Energy:  N/A

   ODE Solver:  EXPLICIT EULER
   Extinction Model:  EXTINCTION 2
   Ignition Temperature (K):            0.0
   Critical Flame Temperature (K):   1600.2


 Material Information


 Surface Conditions

   0 INERT (DEFAULT)

   1 FIRE
     HRR Per Unit Area (kW/m2)         60.0
     REAC_FUEL Mass Flux (kg/s/m2)   3.33E-03

   2 OPEN
     Passive Vent to Atmosphere

   3 MIRROR
     Symmetry Plane

   4 INTERPOLATED

   5 PERIODIC

   6 HVAC

   7 MASSLESS TRACER

   8 DROPLET

   9 VEGETATION

  10 EVACUATION_OUTFLOW
     Normal Velocity (m/s)         0.000

  11 MASSLESS TARGET

  12 PERIODIC WIND


 Slice File Information, Mesh     1

   Sampling Interval (s)            10.000

   1 Nodes:   0 150   0  50  10  10, Quantity: SOOT EXTINCTION COEFFICIENT
   2 Nodes:   0 150   0  50  10  10, Quantity: TEMPERATURE


 Radiation Model Information

   Number of control angles  104
   Time step increment         3
   Angle increment             5
   Theta band N_phi   Solid angle
     1:        4  0.12
     2:       12  0.11
     3:       16  0.13
     4:       20  0.12
     5:       20  0.12
     6:       16  0.13
     7:       12  0.11
     8:        4  0.12
   Using gray gas absorption.
   Mean beam length  1.000 m
 
 

 Run Time Diagnostics

       Time Step       1   March 25, 2019  19:01:34
       Step Size:    0.183E+00 s, Total Time:       0.18 s
       Pressure Iterations:      1
       Maximum Velocity Error:  0.40E-03 on Mesh   1 at ( 151   3   5)
       Maximum Pressure Error:  0.28E+01 on Mesh   1 at (   9   7   1)
       ---------------------------------------------------------------
       Max CFL number:  0.18E-01 at ( 145,   2,   2)
       Max divergence:  0.47E-01 at (   6,  10,   1)
       Min divergence: -0.13E-05 at ( 119,  21,  11)
       Max VN number:   0.13E-01 at (  96,   6,  11)
       Total Heat Release Rate:              3.317 kW
 
       Time Step       2   March 25, 2019  19:01:34
       Step Size:    0.183E+00 s, Total Time:       0.37 s
       Pressure Iterations:      1
       Maximum Velocity Error:  0.11E-02 on Mesh   1 at ( 151   3   5)
       Maximum Pressure Error:  0.79E+01 on Mesh   1 at (   8   8   1)
       ---------------------------------------------------------------
       Max CFL number:  0.21E-01 at (   6,   7,   1)
       Max divergence:  0.15E+00 at (   8,   6,   1)
       Min divergence: -0.35E-04 at (   5,   8,   1)
       Max VN number:   0.13E-01 at ( 114,  12,   7)
       Total Heat Release Rate:             10.897 kW
       Radiation Loss to Boundaries:        -0.087 kW
 
       Time Step       3   March 25, 2019  19:01:34
       Step Size:    0.183E+00 s, Total Time:       0.55 s
       Pressure Iterations:      1
       Maximum Velocity Error:  0.18E-02 on Mesh   1 at ( 151   2   6)
       Maximum Pressure Error:  0.96E+01 on Mesh   1 at (   8   8   1)
       ---------------------------------------------------------------
       Max CFL number:  0.52E-01 at (   6,   7,   1)
       Max divergence:  0.27E+00 at (   8,   8,   1)
       Min divergence: -0.13E-05 at ( 119,  21,  11)
       Max VN number:   0.13E-01 at ( 114,  12,   7)
       Total Heat Release Rate:             19.564 kW
       Radiation Loss to Boundaries:        -0.298 kW
 
       Time Step       4   March 25, 2019  19:01:35
       Step Size:    0.183E+00 s, Total Time:       0.73 s
       Pressure Iterations:      1
       Maximum Velocity Error:  0.26E-02 on Mesh   1 at ( 151   3   8)
       Maximum Pressure Error:  0.92E+01 on Mesh   1 at (   8   8   1)
       ---------------------------------------------------------------
       Max CFL number:  0.94E-01 at (   6,   7,   1)
       Max divergence:  0.37E+00 at (   6,   7,   1)
       Min divergence: -0.13E-05 at ( 119,  21,  11)
       Max VN number:   0.13E-01 at ( 114,  12,   7)
       Total Heat Release Rate:             27.897 kW
       Radiation Loss to Boundaries:        -0.587 kW
 
       Time Step       5   March 25, 2019  19:01:35
       Step Size:    0.183E+00 s, Total Time:       0.91 s
       Pressure Iterations:      1
       Maximum Velocity Error:  0.32E-02 on Mesh   1 at ( 151   3   8)
       Maximum Pressure Error:  0.78E+01 on Mesh   1 at (   6   6   1)
       ---------------------------------------------------------------
       Max CFL number:  0.16E+00 at (  10,  10,   1)
       Max divergence:  0.46E+00 at (   9,   9,   1)
       Min divergence: -0.13E-05 at ( 119,  21,  11)
       Max VN number:   0.24E-01 at (   6,  10,   2)
       Total Heat Release Rate:             35.279 kW
       Radiation Loss to Boundaries:        -1.276 kW
 
       Time Step       6   March 25, 2019  19:01:35
       Step Size:    0.183E+00 s, Total Time:       1.10 s
       Pressure Iterations:      1
       Maximum Velocity Error:  0.36E-02 on Mesh   1 at ( 151   1   2)
       Maximum Pressure Error:  0.61E+01 on Mesh   1 at (   6   6   1)
       ---------------------------------------------------------------
       Max CFL number:  0.25E+00 at (  10,  10,   1)
       Max divergence:  0.54E+00 at (   9,   8,   1)
       Min divergence: -0.24E-02 at (  10,  10,   2)
       Max VN number:   0.45E-01 at (   6,  10,   2)
       Total Heat Release Rate:             41.500 kW
       Radiation Loss to Boundaries:        -2.622 kW
 
       Time Step       7   March 25, 2019  19:01:36
       Step Size:    0.183E+00 s, Total Time:       1.28 s
       Pressure Iterations:      1
       Maximum Velocity Error:  0.38E-02 on Mesh   1 at ( 151   1   1)
       Maximum Pressure Error:  0.19E+01 on Mesh   1 at (   6   6   1)
       ---------------------------------------------------------------
       Max CFL number:  0.37E+00 at (  10,  10,   1)
       Max divergence:  0.59E+00 at (   9,   7,   1)
       Min divergence: -0.19E-01 at (  10,  10,   2)
       Max VN number:   0.83E-01 at (  10,  10,   2)
       Total Heat Release Rate:             46.302 kW
       Radiation Loss to Boundaries:        -4.607 kW
 
       Time Step       8   March 25, 2019  19:01:36
       Step Size:    0.183E+00 s, Total Time:       1.46 s
       Pressure Iterations:      1
       Maximum Velocity Error:  0.37E-02 on Mesh   1 at ( 151   1   1)
       Maximum Pressure Error:  0.39E+01 on Mesh   1 at (   8   8   1)
       ---------------------------------------------------------------
       Max CFL number:  0.50E+00 at (  10,  10,   1)
       Max divergence:  0.58E+00 at (   9,   8,   1)
       Min divergence: -0.46E-01 at (  10,  10,   2)
       Max VN number:   0.14E+00 at (  10,  10,   2)
       Total Heat Release Rate:             50.032 kW
       Radiation Loss to Boundaries:        -7.692 kW
 
       Time Step       9   March 25, 2019  19:01:36
       Step Size:    0.183E+00 s, Total Time:       1.64 s
       Pressure Iterations:      1
       Maximum Velocity Error:  0.35E-02 on Mesh   1 at ( 151   1  12)
       Maximum Pressure Error:  0.76E+01 on Mesh   1 at (   8   8   1)
       ---------------------------------------------------------------
       Max CFL number:  0.59E+00 at (  10,  10,   1)
       Max divergence:  0.55E+00 at (   8,  10,   1)
       Min divergence: -0.68E-01 at (   6,   7,   2)
       Max VN number:   0.25E+00 at (  10,  10,   1)
       Total Heat Release Rate:             52.847 kW
       Radiation Loss to Boundaries:       -11.802 kW
 
       Time Step      10   March 25, 2019  19:01:37
       Step Size:    0.183E+00 s, Total Time:       1.83 s
       Pressure Iterations:      1
       Maximum Velocity Error:  0.32E-02 on Mesh   1 at ( 151   1  15)
       Maximum Pressure Error:  0.49E+01 on Mesh   1 at (   8   8   1)
       ---------------------------------------------------------------
       Max CFL number:  0.73E+00 at (   7,   7,   1)
       Max divergence:  0.68E+00 at (   7,   7,   1)
       Min divergence: -0.27E+00 at (   7,   7,   2)
       Max VN number:   0.34E+00 at (  10,  10,   1)
       Total Heat Release Rate:             54.912 kW
       Radiation Loss to Boundaries:       -14.792 kW
 
       Time Step      20   March 25, 2019  19:01:41
       Step Size:    0.501E-01 s, Total Time:       2.59 s
       Pressure Iterations:      1
       Maximum Velocity Error:  0.87E-03 on Mesh   1 at ( 151   1   4)
       Maximum Pressure Error:  0.21E+02 on Mesh   1 at (   8   8   5)
       ---------------------------------------------------------------
       Max CFL number:  0.98E+00 at (   8,   8,   5)
       Max divergence:  0.88E+00 at (   8,   8,   1)
       Min divergence: -0.53E+00 at (   8,   8,   4)
       Max VN number:   0.27E+00 at (   8,   8,   4)
       Total Heat Release Rate:             57.896 kW
       Radiation Loss to Boundaries:       -14.326 kW
 
       Time Step      30   March 25, 2019  19:01:45
       Step Size:    0.400E-01 s, Total Time:       3.02 s
       Pressure Iterations:      1
       Maximum Velocity Error:  0.18E-02 on Mesh   1 at ( 151   1   6)
       Maximum Pressure Error:  0.18E+02 on Mesh   1 at (   8   8  10)
       ---------------------------------------------------------------
       Max CFL number:  0.88E+00 at (   8,   8,  10)
       Max divergence:  0.83E+00 at (   8,   7,   1)
       Min divergence: -0.64E+00 at (   8,   8,  10)
       Max VN number:   0.34E+00 at (   8,   8,   9)
       Total Heat Release Rate:             59.066 kW
       Radiation Loss to Boundaries:       -12.227 kW
 
       Time Step      40   March 25, 2019  19:01:49
       Step Size:    0.400E-01 s, Total Time:       3.42 s
       Pressure Iterations:      1
       Maximum Velocity Error:  0.18E-02 on Mesh   1 at ( 151  18  15)
       Maximum Pressure Error:  0.17E+02 on Mesh   1 at (   8   8  15)
       ---------------------------------------------------------------
       Max CFL number:  0.83E+00 at (   8,   8,  10)
       Max divergence:  0.83E+00 at (   7,   8,   1)
       Min divergence: -0.57E+00 at (   8,   8,   2)
       Max VN number:   0.33E+00 at (   8,   8,  14)
       Total Heat Release Rate:             59.677 kW
       Radiation Loss to Boundaries:       -12.013 kW
 
       Time Step      50   March 25, 2019  19:01:54
       Step Size:    0.400E-01 s, Total Time:       3.82 s
       Pressure Iterations:      1
       Maximum Velocity Error:  0.60E-03 on Mesh   1 at ( 151   1  12)
       Maximum Pressure Error:  0.61E+01 on Mesh   1 at (   9   7  15)
       ---------------------------------------------------------------
       Max CFL number:  0.90E+00 at (   8,   8,  11)
       Max divergence:  0.90E+00 at (   7,   8,   1)
       Min divergence: -0.51E+00 at (   8,   8,   3)
       Max VN number:   0.46E+00 at (   8,   7,  15)
       Total Heat Release Rate:             60.506 kW
       Radiation Loss to Boundaries:       -13.436 kW
 
       Time Step      60   March 25, 2019  19:01:59
       Step Size:    0.400E-01 s, Total Time:       4.22 s
       Pressure Iterations:      1
       Maximum Velocity Error:  0.14E-02 on Mesh   1 at ( 151   1  14)
       Maximum Pressure Error:  0.22E+01 on Mesh   1 at (  10   7  15)
       ---------------------------------------------------------------
       Max CFL number:  0.81E+00 at (   8,   8,  10)
       Max divergence:  0.86E+00 at (   8,   7,   1)
       Min divergence: -0.45E+00 at (   8,   8,   5)
       Max VN number:   0.40E+00 at (   8,   7,  15)
       Total Heat Release Rate:             59.879 kW
       Radiation Loss to Boundaries:       -12.384 kW
 
       Time Step      70   March 25, 2019  19:02:04
       Step Size:    0.440E-01 s, Total Time:       4.64 s
       Pressure Iterations:      1
       Maximum Velocity Error:  0.16E-02 on Mesh   1 at ( 151   1  15)
       Maximum Pressure Error:  0.28E+01 on Mesh   1 at (   6   7  15)
       ---------------------------------------------------------------
       Max CFL number:  0.90E+00 at (   8,   8,  12)
       Max divergence:  0.90E+00 at (   8,   7,   1)
       Min divergence: -0.44E+00 at (   8,   8,   5)
       Max VN number:   0.48E+00 at (   7,   8,  15)
       Total Heat Release Rate:             60.174 kW
       Radiation Loss to Boundaries:       -12.787 kW
 
       Time Step      80   March 25, 2019  19:02:09
       Step Size:    0.440E-01 s, Total Time:       5.08 s
       Pressure Iterations:      1
       Maximum Velocity Error:  0.33E-03 on Mesh   1 at ( 151   1  12)
       Maximum Pressure Error:  0.23E+01 on Mesh   1 at (   7   8  15)
       ---------------------------------------------------------------
       Max CFL number:  0.80E+00 at (   8,   8,  12)
       Max divergence:  0.90E+00 at (   8,   7,   1)
       Min divergence: -0.43E+00 at (   8,   8,   4)
       Max VN number:   0.49E+00 at (   8,   8,  15)
       Total Heat Release Rate:             60.154 kW
       Radiation Loss to Boundaries:       -12.623 kW
 
       Time Step      90   March 25, 2019  19:02:15
       Step Size:    0.484E-01 s, Total Time:       5.56 s
       Pressure Iterations:      1
       Maximum Velocity Error:  0.13E-02 on Mesh   1 at ( 151   1  14)
       Maximum Pressure Error:  0.19E+01 on Mesh   1 at (   7   7  15)
       ---------------------------------------------------------------
       Max CFL number:  0.91E+00 at (   8,   8,  12)
       Max divergence:  0.89E+00 at (   9,   8,   1)
       Min divergence: -0.42E+00 at (   8,   8,   2)
       Max VN number:   0.48E+00 at (   8,   8,  15)
       Total Heat Release Rate:             59.598 kW
       Radiation Loss to Boundaries:       -12.449 kW
 
       Time Step     100   March 25, 2019  19:02:20
       Step Size:    0.484E-01 s, Total Time:       6.05 s
       Pressure Iterations:      1
       Maximum Velocity Error:  0.14E-02 on Mesh   1 at ( 151   1  15)
       Maximum Pressure Error:  0.45E+01 on Mesh   1 at (   7   7  15)
       ---------------------------------------------------------------
       Max CFL number:  0.90E+00 at (   8,   8,  12)
       Max divergence:  0.89E+00 at (   7,   8,   1)
       Min divergence: -0.46E+00 at (   8,   8,   2)
       Max VN number:   0.52E+00 at (   8,   8,  15)
       Total Heat Release Rate:             60.068 kW
       Radiation Loss to Boundaries:       -13.115 kW
 
       Time Step     200   March 25, 2019  19:03:14
       Step Size:    0.532E-01 s, Total Time:      10.98 s
       Pressure Iterations:      1
       Maximum Velocity Error:  0.71E-04 on Mesh   1 at ( 151  25  15)
       Maximum Pressure Error:  0.78E+00 on Mesh   1 at (   8   8  15)
       ---------------------------------------------------------------
       Max CFL number:  0.87E+00 at (   7,   7,  12)
       Max divergence:  0.88E+00 at (   7,   7,   1)
       Min divergence: -0.34E+00 at (   8,   8,   2)
       Max VN number:   0.57E+00 at (   7,   7,  15)
       Total Heat Release Rate:             60.221 kW
       Radiation Loss to Boundaries:       -14.153 kW
 
       Time Step     300   March 25, 2019  19:04:07
       Step Size:    0.532E-01 s, Total Time:      16.30 s
       Pressure Iterations:      1
       Maximum Velocity Error:  0.40E-03 on Mesh   1 at ( 151   1  15)
       Maximum Pressure Error:  0.21E+01 on Mesh   1 at (   7   6  15)
       ---------------------------------------------------------------
       Max CFL number:  0.91E+00 at (   7,   7,   8)
       Max divergence:  0.90E+00 at (   8,   8,   1)
       Min divergence: -0.31E+00 at (   7,   7,   8)
       Max VN number:   0.60E+00 at (   7,   7,  15)
       Total Heat Release Rate:             60.087 kW
       Radiation Loss to Boundaries:       -14.246 kW
 
       Time Step     400   March 25, 2019  19:05:01
       Step Size:    0.532E-01 s, Total Time:      21.62 s
       Pressure Iterations:      1
       Maximum Velocity Error:  0.39E-04 on Mesh   1 at ( 151  28  14)
       Maximum Pressure Error:  0.16E+01 on Mesh   1 at (   8   6  12)
       ---------------------------------------------------------------
       Max CFL number:  0.82E+00 at (   8,   8,  11)
       Max divergence:  0.90E+00 at (   8,   8,   1)
       Min divergence: -0.30E+00 at (   8,   7,   5)
       Max VN number:   0.48E+00 at (   7,   8,  15)
       Total Heat Release Rate:             60.042 kW
       Radiation Loss to Boundaries:       -13.438 kW
 
       Time Step     500   March 25, 2019  19:05:54
       Step Size:    0.532E-01 s, Total Time:      26.94 s
       Pressure Iterations:      1
       Maximum Velocity Error:  0.31E-03 on Mesh   1 at ( 151   1  15)
       Maximum Pressure Error:  0.33E+01 on Mesh   1 at (   6   7  15)
       ---------------------------------------------------------------
       Max CFL number:  0.86E+00 at (   7,   7,  12)
       Max divergence:  0.86E+00 at (   8,   7,   1)
       Min divergence: -0.29E+00 at (   7,   8,   2)
       Max VN number:   0.53E+00 at (   7,   7,  15)
       Total Heat Release Rate:             60.061 kW
       Radiation Loss to Boundaries:       -14.406 kW
 
       Time Step     600   March 25, 2019  19:06:48
       Step Size:    0.549E-01 s, Total Time:      32.20 s
       Pressure Iterations:      1
       Maximum Velocity Error:  0.73E-04 on Mesh   1 at ( 151  14  13)
       Maximum Pressure Error:  0.24E+01 on Mesh   1 at (   7   7   6)
       ---------------------------------------------------------------
       Max CFL number:  0.99E+00 at (   7,   8,  10)
       Max divergence:  0.96E+00 at (   8,   9,   1)
       Min divergence: -0.37E+00 at (   7,   8,   7)
       Max VN number:   0.55E+00 at (   7,   8,  15)
       Total Heat Release Rate:             59.454 kW
       Radiation Loss to Boundaries:       -13.496 kW
 
       Time Step     700   March 25, 2019  19:07:42
       Step Size:    0.531E-01 s, Total Time:      37.29 s
       Pressure Iterations:      1
       Maximum Velocity Error:  0.27E-03 on Mesh   1 at ( 151   1  14)
       Maximum Pressure Error:  0.15E+01 on Mesh   1 at (   6   7  15)
       ---------------------------------------------------------------
       Max CFL number:  0.87E+00 at (   7,   7,  13)
       Max divergence:  0.89E+00 at (   8,   8,   1)
       Min divergence: -0.31E+00 at (   7,   7,   4)
       Max VN number:   0.58E+00 at (   7,   7,  15)
       Total Heat Release Rate:             59.840 kW
       Radiation Loss to Boundaries:       -14.830 kW
 
       Time Step     800   March 25, 2019  19:08:36
       Step Size:    0.525E-01 s, Total Time:      42.46 s
       Pressure Iterations:      1
       Maximum Velocity Error:  0.99E-04 on Mesh   1 at ( 151  21   1)
       Maximum Pressure Error:  0.25E+01 on Mesh   1 at (   7   6  15)
       ---------------------------------------------------------------
       Max CFL number:  0.87E+00 at (   7,   8,  10)
       Max divergence:  0.86E+00 at (   8,   8,   1)
       Min divergence: -0.31E+00 at (   7,   7,   5)
       Max VN number:   0.55E+00 at (   7,   8,  15)
       Total Heat Release Rate:             59.974 kW
       Radiation Loss to Boundaries:       -15.113 kW
 
       Time Step     900   March 25, 2019  19:09:30
       Step Size:    0.510E-01 s, Total Time:      47.68 s
       Pressure Iterations:      1
       Maximum Velocity Error:  0.43E-04 on Mesh   1 at ( 151  35  15)
       Maximum Pressure Error:  0.22E+01 on Mesh   1 at (   7   9  15)
       ---------------------------------------------------------------
       Max CFL number:  0.84E+00 at (   7,   7,  12)
       Max divergence:  0.87E+00 at (   8,   7,   1)
       Min divergence: -0.38E+00 at (   7,   7,   6)
       Max VN number:   0.54E+00 at (   7,   7,  15)
       Total Heat Release Rate:             60.664 kW
       Radiation Loss to Boundaries:       -16.080 kW
 
       Time Step    1000   March 25, 2019  19:10:25
       Step Size:    0.479E-01 s, Total Time:      52.67 s
       Pressure Iterations:      1
       Maximum Velocity Error:  0.95E-04 on Mesh   1 at ( 151  50  15)
       Maximum Pressure Error:  0.36E+01 on Mesh   1 at (   8   7  13)
       ---------------------------------------------------------------
       Max CFL number:  0.91E+00 at (   8,   7,  13)
       Max divergence:  0.84E+00 at (   8,   9,   1)
       Min divergence: -0.29E+00 at (   7,   8,   4)
       Max VN number:   0.44E+00 at (   7,   7,  15)
       Total Heat Release Rate:             59.867 kW
       Radiation Loss to Boundaries:       -15.486 kW
 
       Time Step    1100   March 25, 2019  19:11:19
       Step Size:    0.527E-01 s, Total Time:      57.88 s
       Pressure Iterations:      1
       Maximum Velocity Error:  0.36E-04 on Mesh   1 at ( 151  24  15)
       Maximum Pressure Error:  0.34E+01 on Mesh   1 at (   6   8  15)
       ---------------------------------------------------------------
       Max CFL number:  0.85E+00 at (   7,   8,   8)
       Max divergence:  0.81E+00 at (   7,   7,   1)
       Min divergence: -0.38E+00 at (   7,   8,   5)
       Max VN number:   0.58E+00 at (   7,   8,  15)
       Total Heat Release Rate:             60.055 kW
       Radiation Loss to Boundaries:       -15.744 kW
 
       Time Step    1200   March 25, 2019  19:12:13
       Step Size:    0.527E-01 s, Total Time:      63.15 s
       Pressure Iterations:      1
       Maximum Velocity Error:  0.19E-03 on Mesh   1 at ( 151   1  15)
       Maximum Pressure Error:  0.40E+01 on Mesh   1 at (   8   7  15)
       ---------------------------------------------------------------
       Max CFL number:  0.90E+00 at (   7,   7,   8)
       Max divergence:  0.90E+00 at (   8,   8,   1)
       Min divergence: -0.46E+00 at (   7,   7,   3)
       Max VN number:   0.51E+00 at (   7,   7,  15)
       Total Heat Release Rate:             59.977 kW
       Radiation Loss to Boundaries:       -16.226 kW
 
       Time Step    1300   March 25, 2019  19:13:08
       Step Size:    0.506E-01 s, Total Time:      68.36 s
       Pressure Iterations:      1
       Maximum Velocity Error:  0.22E-03 on Mesh   1 at ( 151  34  15)
       Maximum Pressure Error:  0.28E+01 on Mesh   1 at (   6   6  15)
       ---------------------------------------------------------------
       Max CFL number:  0.89E+00 at (   7,   7,  10)
       Max divergence:  0.93E+00 at (   8,   8,   1)
       Min divergence: -0.32E+00 at (   7,   8,   2)
       Max VN number:   0.53E+00 at (   7,   7,  15)
       Total Heat Release Rate:             60.325 kW
       Radiation Loss to Boundaries:       -17.345 kW
 
       Time Step    1400   March 25, 2019  19:14:03
       Step Size:    0.506E-01 s, Total Time:      73.42 s
       Pressure Iterations:      1
       Maximum Velocity Error:  0.27E-02 on Mesh   1 at ( 151  18  15)
       Maximum Pressure Error:  0.17E+01 on Mesh   1 at (   7   6  15)
       ---------------------------------------------------------------
       Max CFL number:  0.87E+00 at (   7,   7,  11)
       Max divergence:  0.92E+00 at (   8,   8,   1)
       Min divergence: -0.32E+00 at (   7,   7,   4)
       Max VN number:   0.47E+00 at (   8,   7,  15)
       Total Heat Release Rate:             60.047 kW
       Radiation Loss to Boundaries:       -16.444 kW
 
       Time Step    1500   March 25, 2019  19:14:57
       Step Size:    0.506E-01 s, Total Time:      78.48 s
       Pressure Iterations:      1
       Maximum Velocity Error:  0.20E-02 on Mesh   1 at ( 151   7  13)
       Maximum Pressure Error:  0.12E+01 on Mesh   1 at (   8   7   1)
       ---------------------------------------------------------------
       Max CFL number:  0.84E+00 at (   7,   7,  12)
       Max divergence:  0.89E+00 at (   8,   8,   1)
       Min divergence: -0.37E+00 at (   8,   7,   2)
       Max VN number:   0.53E+00 at (   7,   7,  15)
       Total Heat Release Rate:             60.193 kW
       Radiation Loss to Boundaries:       -16.847 kW
 
       Time Step    1600   March 25, 2019  19:15:51
       Step Size:    0.557E-01 s, Total Time:      83.70 s
       Pressure Iterations:      1
       Maximum Velocity Error:  0.33E-02 on Mesh   1 at ( 151   3  10)
       Maximum Pressure Error:  0.14E+01 on Mesh   1 at (   8   7  15)
       ---------------------------------------------------------------
       Max CFL number:  0.87E+00 at (   7,   7,  10)
       Max divergence:  0.90E+00 at (   8,   9,   1)
       Min divergence: -0.24E+00 at (   7,   8,   2)
       Max VN number:   0.56E+00 at (   7,   6,  15)
       Total Heat Release Rate:             59.708 kW
       Radiation Loss to Boundaries:       -16.339 kW
 
       Time Step    1700   March 25, 2019  19:16:46
       Step Size:    0.495E-01 s, Total Time:      89.17 s
       Pressure Iterations:      1
       Maximum Velocity Error:  0.57E-03 on Mesh   1 at ( 151   1   8)
       Maximum Pressure Error:  0.37E+01 on Mesh   1 at (   7   6  15)
       ---------------------------------------------------------------
       Max CFL number:  0.85E+00 at (   7,   7,  12)
       Max divergence:  0.85E+00 at (   8,   8,   1)
       Min divergence: -0.47E+00 at (   7,   8,   3)
       Max VN number:   0.52E+00 at (   7,   7,  15)
       Total Heat Release Rate:             60.124 kW
       Radiation Loss to Boundaries:       -17.048 kW
 
       Time Step    1800   March 25, 2019  19:17:40
       Step Size:    0.487E-01 s, Total Time:      94.40 s
       Pressure Iterations:      1
       Maximum Velocity Error:  0.82E-03 on Mesh   1 at ( 151  40   1)
       Maximum Pressure Error:  0.39E+01 on Mesh   1 at (   7   8  10)
       ---------------------------------------------------------------
       Max CFL number:  0.82E+00 at (   7,   7,  10)
       Max divergence:  0.84E+00 at (   8,   8,   1)
       Min divergence: -0.34E+00 at (   7,   8,   3)
       Max VN number:   0.54E+00 at (   7,   7,  15)
       Total Heat Release Rate:             60.167 kW
       Radiation Loss to Boundaries:       -17.090 kW
 
       Time Step    1900   March 25, 2019  19:18:34
       Step Size:    0.519E-01 s, Total Time:      99.66 s
       Pressure Iterations:      1
       Maximum Velocity Error:  0.60E-03 on Mesh   1 at ( 151  48   8)
       Maximum Pressure Error:  0.51E+01 on Mesh   1 at (   7   6  15)
       ---------------------------------------------------------------
       Max CFL number:  0.89E+00 at (   7,   5,  13)
       Max divergence:  0.90E+00 at (   8,   8,   1)
       Min divergence: -0.33E+00 at (   8,   8,   2)
       Max VN number:   0.51E+00 at (   8,   6,  15)
       Total Heat Release Rate:             60.432 kW
       Radiation Loss to Boundaries:       -16.989 kW
 
       Time Step    2000   March 25, 2019  19:19:29
       Step Size:    0.543E-01 s, Total Time:     104.86 s
       Pressure Iterations:      1
       Maximum Velocity Error:  0.78E-03 on Mesh   1 at ( 151  48   7)
       Maximum Pressure Error:  0.30E+01 on Mesh   1 at (   7   9  15)
       ---------------------------------------------------------------
       Max CFL number:  0.95E+00 at (   7,   8,   9)
       Max divergence:  0.86E+00 at (   8,   8,   1)
       Min divergence: -0.44E+00 at (   7,   8,   5)
       Max VN number:   0.63E+00 at (   7,   8,  15)
       Total Heat Release Rate:             60.181 kW
       Radiation Loss to Boundaries:       -17.148 kW
 
       Time Step    2100   March 25, 2019  19:20:23
       Step Size:    0.530E-01 s, Total Time:     110.09 s
       Pressure Iterations:      1
       Maximum Velocity Error:  0.45E-03 on Mesh   1 at ( 151  46   3)
       Maximum Pressure Error:  0.36E+01 on Mesh   1 at (   6   8  15)
       ---------------------------------------------------------------
       Max CFL number:  0.89E+00 at (   7,   7,  11)
       Max divergence:  0.91E+00 at (   8,   8,   1)
       Min divergence: -0.33E+00 at (   7,   7,   6)
       Max VN number:   0.55E+00 at (   6,   8,  15)
       Total Heat Release Rate:             60.118 kW
       Radiation Loss to Boundaries:       -17.689 kW
 
       Time Step    2200   March 25, 2019  19:21:17
       Step Size:    0.530E-01 s, Total Time:     115.39 s
       Pressure Iterations:      1
       Maximum Velocity Error:  0.51E-03 on Mesh   1 at ( 151  50   5)
       Maximum Pressure Error:  0.16E+01 on Mesh   1 at (   6   8   9)
       ---------------------------------------------------------------
       Max CFL number:  0.82E+00 at (   7,   7,  11)
       Max divergence:  0.90E+00 at (   8,   8,   1)
       Min divergence: -0.49E+00 at (   7,   8,   2)
       Max VN number:   0.56E+00 at (   7,   7,  15)
       Total Heat Release Rate:             60.039 kW
       Radiation Loss to Boundaries:       -18.037 kW
 
       Time Step    2288   March 25, 2019  19:22:04
       Step Size:    0.902E-03 s, Total Time:     120.00 s
       Pressure Iterations:      3
       Maximum Velocity Error:  0.12E-02 on Mesh   1 at ( 151   1  15)
       Maximum Pressure Error:  0.34E+03 on Mesh   1 at (   8   7   1)
       ---------------------------------------------------------------
       Max CFL number:  0.16E-01 at (   7,   7,  12)
       Max divergence:  0.11E+01 at (   7,   8,   1)
       Min divergence: -0.27E+00 at (   8,   7,   3)
       Max VN number:   0.79E-02 at (   7,   6,  15)
       Total Heat Release Rate:             68.850 kW
       Radiation Loss to Boundaries:       -18.439 kW
 


 Time Stepping Wall Clock Time (s):     1231.395
 Total Elapsed Wall Clock Time (s):     1236.171

STOP: FDS completed successfully (CHID: ASET_animation)
